Version 4.1
SHEET 1 1248 680
WIRE -336 144 -336 64
WIRE -336 144 -416 144
WIRE 128 144 128 64
WIRE 160 144 128 144
WIRE -416 160 -416 144
WIRE 304 160 224 160
WIRE 448 160 384 160
WIRE 592 160 512 160
WIRE 160 176 -64 176
WIRE -176 208 -208 208
WIRE -64 208 -64 176
WIRE -64 208 -96 208
WIRE 592 208 592 160
WIRE -208 240 -208 208
WIRE -64 256 -64 208
WIRE -336 272 -336 144
FLAG 192 128 VCC
IOPIN 192 128 BiDir
FLAG -336 -16 VCC
IOPIN -336 -16 BiDir
FLAG 192 192 VEE
IOPIN 192 192 BiDir
FLAG -336 352 VEE
IOPIN -336 352 BiDir
FLAG -416 160 0
FLAG 128 -16 0
FLAG 592 208 0
FLAG -64 208 Vtherm
IOPIN -64 208 BiDir
FLAG -208 240 VCC
IOPIN -208 240 BiDir
FLAG -64 336 0
SYMBOL OpAmps\\opamp2 192 96 R0
SYMATTR InstName U1
SYMATTR Value LM741
SYMBOL voltage -336 -32 R0
WINDOW 123 0 0 Left 0
WINDOW 39 0 0 Left 0
SYMATTR InstName V1
SYMATTR Value 12
SYMBOL voltage -336 368 R180
WINDOW 0 24 96 Left 2
WINDOW 3 24 16 Left 2
WINDOW 123 0 0 Left 0
WINDOW 39 0 0 Left 0
SYMATTR InstName V2
SYMATTR Value -12
SYMBOL res -80 192 R90
WINDOW 0 0 56 VBottom 2
WINDOW 3 41 65 Bottom 1
SYMATTR InstName R2
SYMATTR Value {10000 * exp(3950 * (1/( temp + 273.15) - 1/298.15))}
SYMBOL voltage 128 80 R180
WINDOW 123 0 0 Left 0
WINDOW 39 0 0 Left 0
SYMATTR InstName V3
SYMATTR Value 5
SYMBOL diode 448 176 R270
WINDOW 0 32 32 VTop 2
WINDOW 3 0 32 VBottom 2
SYMATTR InstName D1
SYMATTR Value LED
SYMBOL res 400 144 R90
WINDOW 0 0 56 VBottom 2
WINDOW 3 32 56 VTop 2
SYMATTR InstName R3
SYMATTR Value 330
SYMBOL res -80 240 R0
SYMATTR InstName R1
SYMATTR Value 10k
TEXT 8 408 Left 2 !.model LED D(Is=1e-21 N=1.8 Rs=5 Vfwd=2.0 Ilimit=0.05)
TEXT 16 448 Left 2 !.inc LM741.lib
TEXT 368 304 Left 2 !.step temp 0 100 5\n.tran 0 1m 0 startup\n.option noopiter
